THERMO
   300.000  1500.000  5000.000
AR                120186AR  1    0    0    0G   300.000  5000.000  800.00      1
  2.5010012E+00  0.0000000E+00  0.0000000E+00  0.0000000E+00  0.0000000E+00    2
 -7.4567352E+02  4.3593631E+00  2.5010012E+00  0.0000000E+00  0.0000000E+00    3
  0.0000000E+00  0.0000000E+00 -7.4567352E+02  4.3593631E+00                   4
H                 120186H   1    0    0    0G   300.000  5000.000  800.00      1
  2.5010012E+00  0.0000000E+00  0.0000000E+00  0.0000000E+00  0.0000000E+00    2
  2.5472066E+04 -4.6651255E-01  2.5010012E+00  0.0000000E+00  0.0000000E+00    3
  0.0000000E+00  0.0000000E+00  2.5472066E+04 -4.6651255E-01                   4
H2                121286H   2    0    0    0G   300.000  5000.000 1500.00      1
  2.6634523E+00  1.2775364E-03 -3.8497682E-07  5.5384305E-11 -3.1025570E-15    2
 -7.0006013E+02  4.7520812E-01  3.5311065E+00 -1.0106890E-04 -1.3670400E-07    3
  5.5190872E-10 -2.0737515E-13 -1.0480921E+03 -4.3815947E+00                   4
HE                120186HE  1    0    0    0g   300.000  5000.000  800.00      1
  2.5010012E+00  0.0000000E+00  0.0000000E+00  0.0000000E+00  0.0000000E+00    2
 -7.4567352E+02  9.0727686E-01  2.5010012E+00  0.0000000E+00  0.0000000E+00    3
  0.0000000E+00  0.0000000E+00 -7.4567352E+02  9.0727686E-01                   4
N2                121286N   2    0    0    0G   300.000  5000.000 1250.00      1
  3.0122700E+00  1.3725248E-03 -5.1913915E-07  8.9549584E-11 -5.8033422E-15    2
 -9.6481698E+02  5.4821222E+00  3.7743796E+00 -1.9878516E-03  4.4564162E-06    3
 -2.9965031E-09  6.8703608E-13 -1.0707522E+03  1.9471870E+00                   4
CH3        CBS-Q 07/01  C   1H   3    0    0G   300.000  5000.000 1290.00      1
  3.0684403E+00  5.8392856E-03 -2.0710484E-06  3.4112883E-10 -2.1367956E-14    2
  1.6617234E+04  4.1496532E+00  3.5787580E+00  3.3903072E-03  1.3848945E-06    3
 -1.5947521E-09  3.5908601E-13  1.6592056E+04  1.9000735E+00                   4
CH4               121286C   1H   4    0    0G   300.000  5000.000 1240.00      1
  2.0878366E+00  9.6946814E-03 -3.6212669E-06  6.1956636E-10 -3.9912528E-14    2
 -1.0295555E+04  7.2474576E+00  3.6847383E+00 -2.4794557E-03  1.9828786E-05    3
 -1.7023660E-08  4.6471532E-12 -1.0139769E+04  1.3831620E+00                   4
C2                121286C   2    0    0    0G   300.000  5000.000  840.00      1
  4.5000000E+00 -4.3549197E-13  3.2489746E-16 -9.0752546E-20  8.3973830E-24    2
  9.9423011E+04 -1.6658052E+00  4.5000000E+00  1.2035475E-12 -1.8283867E-15    3
  9.9025409E-19 -6.9834624E-23  9.9423011E+04 -1.6658051E+00                   4
C2H        CBS-Q 07/01  C   2H   1    0    0G   300.000  5000.000 1160.00      1
  4.4760651E+00  2.4736274E-03 -9.7890988E-07  1.7469296E-10 -1.1619651E-14    2
  6.6867364E+04 -1.2678650E+00  3.6006706E+00  3.8274178E-03 -1.1885629E-06    3
 -3.0534121E-10  1.7416565E-13  6.7220323E+04  3.6453932E+00                   4
C2H2       HR11/99BLYP00C   2H   2    0    0G   300.000  5000.000 1210.00      1
  5.2470639E+00  4.4047963E-03 -1.6751488E-06  2.9045678E-10 -1.8909764E-14    2
  2.5338790E+04 -7.0399687E+00  2.6835068E+00  1.4430967E-02 -1.8034145E-05    3
  1.2574163E-08 -3.4609121E-12  2.5964085E+04  5.5918405E+00                   4
C2H3       CBS-Q 07/01  C   2H   3    0    0G   300.000  5000.000 1220.00      1
  4.7128705E+00  7.2529174E-03 -2.6566855E-06  4.4914017E-10 -2.8727615E-14    2
  3.3970100E+04 -1.5424110E+00  1.2992513E+00  1.6523497E-02 -1.2535732E-05    3
  5.3675591E-09 -9.8732582E-13  3.5009343E+04  1.6312586E+01                   4
C2H4              121286C   2H   4    0    0G   300.000  5000.000 1200.00      1
  4.0999032E+00  1.0763234E-02 -4.1104523E-06  7.1506547E-10 -4.6633524E-14    2
  4.1174248E+03 -1.1503689E+00  6.6295563E-01  1.7005992E-02 -6.6560002E-06    3
 -3.4114088E-10  6.4605152E-13  5.4160248E+03  1.7808625E+01                   4
C2H5       CBS-Q 07/01  C   2H   5    0    0G   300.000  5000.000 1230.00      1
  4.5340708E+00  1.2368661E-02 -4.5673411E-06  7.7643157E-10 -4.9853203E-14    2
  1.2358229E+04 -5.2683936E-01  1.7895326E+00  1.6256214E-02 -4.7306360E-06    3
 -9.4241375E-10  5.6549038E-13  1.3531637E+04  1.5055822E+01                   4
C2H6              121686C   2H   6    0    0G   300.000  5000.000 1220.00      1
  4.9964608E+00  1.4333546E-02 -5.2602375E-06  8.9362312E-10 -5.7462385E-14    2
 -1.2964459E+04 -6.6403008E+00  1.2391494E+00  1.7170371E-02  1.3180259E-06    3
 -7.6081659E-09  2.6253173E-12 -1.1214990E+04  1.5365133E+01                   4
C3H2       CBS-Q 07/01  C   3H   2    0    0G   300.000  5000.000 1250.00      1
  7.7821471E+00  4.3675113E-03 -1.5445018E-06  2.5413616E-10 -1.5918048E-14    2
  6.2534593E+04 -1.4285229E+01  4.3311102E+00  1.7313023E-02 -2.0217018E-05    3
  1.2321033E-08 -2.9335829E-12  6.3307046E+04  2.6545282E+00                   4
H2CCCH     CBS-Q 07/01  C   3H   3    0    0G   300.000  5000.000 1230.00      1
  7.3399582E+00  7.4944899E-03 -2.7191714E-06  4.5621411E-10 -2.9004360E-14    2
  3.8481792E+04 -1.3697086E+01  3.0613663E+00  2.0995970E-02 -1.9578010E-05    3
  1.0196018E-08 -2.1903239E-12  3.9632295E+04  8.0854067E+00                   4
C3H4       CBS-Q 07/01  C   3H   4    0    0G   300.000  5000.000 1210.00      1
  6.2520974E+00  1.1327184E-02 -4.1949492E-06  7.1490780E-10 -4.6000026E-14    2
  1.9146975E+04 -1.1020133E+01  6.9705076E-01  2.5803979E-02 -1.8807342E-05    3
  7.5611244E-09 -1.3038721E-12  2.0883410E+04  1.8223015E+01                   4
C3H5       CBS-Q 07/01  C   3H   5    0    0G   300.000  5000.000 1180.00      1
  7.4223432E+00  1.3104326E-02 -5.0109601E-06  8.7339290E-10 -5.7121889E-14    2
  1.7032115E+04 -1.6446455E+01 -2.1178254E-01  3.4257123E-02 -2.8304670E-05    3
  1.3079670E-08 -2.6088937E-12  1.9322494E+04  2.3360283E+01                   4
C3H6       CBS-Q 07/01  C   3H   6    0    0G   300.000  5000.000 1210.00      1
  6.0348679E+00  1.6569640E-02 -6.1797119E-06  1.0584327E-09 -6.8351726E-14    2
 -5.6684475E+02 -8.7855389E+00  5.2647031E-01  2.7605953E-02 -1.3369668E-05    3
  2.4992702E-09 -8.2921721E-15  1.4617025E+03  2.1341576E+01                   4
NC3H7      CBS-Q 07/01  C   3H   7    0    0G   300.000  5000.000 1210.00      1
  6.9735991E+00  1.7918581E-02 -6.6655562E-06  1.1392578E-09 -7.3449324E-14    2
  8.7330257E+03 -1.1695225E+01  6.0316254E-01  3.2277564E-02 -1.8574690E-05    3
  5.4994947E-09 -6.7626837E-13  1.0938419E+04  2.2616479E+01                   4
IC3H7      CBS-Q 07/01  C   3H   7    0    0G   300.000  5000.000 1210.00      1
  6.0837295E+00  1.8824214E-02 -7.0387451E-06  1.2080654E-09 -7.8141641E-14    2
  7.4870013E+03 -7.2692675E+00  1.2178134E+00  2.5612008E-02 -6.8157061E-06    3
 -2.3847004E-09  1.1772007E-12  9.5481923E+03  2.0343193E+01                   4
C3H8              120186C   3H   8    0    0G   300.000  5000.000 1210.00      1
  7.7826828E+00  1.9393252E-02 -7.1213531E-06  1.2087993E-09 -7.7639600E-14    2
 -1.6773663E+04 -1.9809805E+01  1.4576976E-01  3.2491070E-02 -1.0264744E-05    3
 -3.5568963E-09  2.1772292E-12 -1.3880807E+04  2.2458494E+01                   4
END
